REMARK  Name = aging_docking_results\LJQGEQKQYOOM.pdb
REMARK  8 active torsions:
REMARK  status: ('A' for Active; 'I' for Inactive)
REMARK    1  A    between atoms: C1_1  and  C2_2
REMARK    2  A    between atoms: C4_4  and  N4_25
REMARK    3  A    between atoms: C5_5  and  N1_8
REMARK    4  A    between atoms: C8_9  and  C9_11
REMARK    5  A    between atoms: C12_14  and  C15_17
REMARK    6  A    between atoms: C15_17  and  N2_18
REMARK    7  A    between atoms: N3_21  and  C20_24
REMARK    8  A    between atoms: C24_30  and  C25_32
REMARK                            x       y       z     vdW  Elec       q    Type
REMARK                         _______ _______ _______ _____ _____    ______ ____
ROOT
ATOM      1  C1  UNL     1       4.149   5.876   3.595  0.00  0.00    +0.000 C 
ATOM      2  C2  UNL     1       3.226   4.779   3.150  0.00  0.00    +0.000 A 
ATOM      3  C3  UNL     1       3.605   3.922   2.107  0.00  0.00    +0.000 A 
ATOM      4  C4  UNL     1       2.769   2.867   1.707  0.00  0.00    +0.000 A 
ATOM      5  C5  UNL     1       1.525   2.680   2.348  0.00  0.00    +0.000 A 
ATOM      6  C6  UNL     1       1.169   3.521   3.417  0.00  0.00    +0.000 A 
ATOM      7  C7  UNL     1       2.012   4.561   3.814  0.00  0.00    +0.000 A 
ENDROOT
BRANCH   4   8
ATOM      8  N4  UNL     1       3.143   2.027   0.604  0.00  0.00    +0.000 N 
ATOM      9  C21 UNL     1       4.438   1.423   0.474  0.00  0.00    +0.000 A 
ATOM     10  N5  UNL     1       5.358   1.524   1.471  0.00  0.00    +0.000 NA
ATOM     11  C22 UNL     1       6.568   0.920   1.370  0.00  0.00    +0.000 A 
ATOM     12  C23 UNL     1       6.884   0.174   0.234  0.00  0.00    +0.000 A 
ATOM     13  C24 UNL     1       5.930   0.070  -0.792  0.00  0.00    +0.000 A 
ATOM     14  N6  UNL     1       4.729   0.694  -0.636  0.00  0.00    +0.000 NA
ATOM     15  H25 UNL     1       2.409   1.758  -0.089  0.00  0.00    +0.000 HD
BRANCH  13  16
ATOM     16  C25 UNL     1       6.186  -0.713  -2.030  0.00  0.00    +0.000 A 
ATOM     17  C26 UNL     1       5.110  -1.251  -2.759  0.00  0.00    +0.000 A 
ATOM     18  N7  UNL     1       5.333  -1.954  -3.900  0.00  0.00    +0.000 NA
ATOM     19  C27 UNL     1       6.586  -2.158  -4.381  0.00  0.00    +0.000 A 
ATOM     20  C28 UNL     1       7.687  -1.638  -3.702  0.00  0.00    +0.000 A 
ATOM     21  C29 UNL     1       7.487  -0.912  -2.527  0.00  0.00    +0.000 A 
ENDBRANCH  13  16
ENDBRANCH   4   8
BRANCH   5  22
ATOM     22  N1  UNL     1       0.689   1.570   1.977  0.00  0.00    +0.000 N 
ATOM     23  C8  UNL     1      -0.746   1.646   1.879  0.00  0.00    +0.000 C 
ATOM     24  O1  UNL     1      -1.338   2.737   2.109  0.00  0.00    +0.000 OA
ATOM     25  H7  UNL     1       1.165   0.670   1.745  0.00  0.00    +0.000 HD
BRANCH  23  26
ATOM     26  C9  UNL     1      -1.547   0.458   1.502  0.00  0.00    +0.000 A 
ATOM     27  C10 UNL     1      -1.034  -0.521   0.632  0.00  0.00    +0.000 A 
ATOM     28  C11 UNL     1      -1.806  -1.631   0.279  0.00  0.00    +0.000 A 
ATOM     29  C12 UNL     1      -3.106  -1.782   0.784  0.00  0.00    +0.000 A 
ATOM     30  C13 UNL     1      -3.622  -0.807   1.649  0.00  0.00    +0.000 A 
ATOM     31  C14 UNL     1      -2.854   0.308   1.998  0.00  0.00    +0.000 A 
BRANCH  29  32
ATOM     32  C15 UNL     1      -3.938  -2.982   0.409  0.00  0.00    +0.000 C 
BRANCH  32  33
ATOM     33  N2  UNL     1      -5.233  -2.565  -0.168  0.00  0.00    +0.000 NA
ATOM     34  C16 UNL     1      -5.070  -2.027  -1.533  0.00  0.00    +0.000 C 
ATOM     35  C17 UNL     1      -6.407  -1.445  -2.034  0.00  0.00    +0.000 C 
ATOM     36  N3  UNL     1      -7.554  -1.939  -1.240  0.00  0.00    +0.000 NA
ATOM     37  C18 UNL     1      -7.439  -3.391  -1.011  0.00  0.00    +0.000 C 
ATOM     38  C19 UNL     1      -6.176  -3.705  -0.181  0.00  0.00    +0.000 C 
ATOM     39  C20 UNL     1      -8.821  -1.625  -1.919  0.00  0.00    +0.000 C 
ENDBRANCH  32  33
ENDBRANCH  29  32
ENDBRANCH  23  26
ENDBRANCH   5  22
TORSDOF 6
