REMARK  Name = aging_docking_results\ULQWWFVNXHAH.pdb
REMARK  5 active torsions:
REMARK  status: ('A' for Active; 'I' for Inactive)
REMARK    1  A    between atoms: C1_1  and  C2_2
REMARK    2  A    between atoms: C3_3  and  N2_9
REMARK    3  A    between atoms: C7_11  and  C12_19
REMARK    4  A    between atoms: C9_13  and  C11_17
REMARK    5  A    between atoms: C15_22  and  C18_25
REMARK                            x       y       z     vdW  Elec       q    Type
REMARK                         _______ _______ _______ _____ _____    ______ ____
ROOT
ATOM      1  N2  UNL     1      -1.900  -0.022  -0.320  0.00  0.00    +0.000 N 
ATOM      2  C6  UNL     1      -0.813   0.049   0.496  0.00  0.00    +0.000 A 
ATOM      3  C7  UNL     1       0.362  -0.096  -0.272  0.00  0.00    +0.000 A 
ATOM      4  C8  UNL     1      -0.121  -0.247  -1.561  0.00  0.00    +0.000 A 
ATOM      5  C9  UNL     1       0.282  -0.246  -2.875  0.00  0.00    +0.000 A 
ATOM      6  C10 UNL     1      -0.930  -0.205  -3.586  0.00  0.00    +0.000 A 
ATOM      7  N3  UNL     1      -1.985  -0.166  -2.725  0.00  0.00    +0.000 NA
ATOM      8  N4  UNL     1      -1.424  -0.216  -1.533  0.00  0.00    +0.000 N 
ENDROOT
BRANCH   1  11
ATOM      9  C1  UNL     1      -3.288  -1.144   2.196  0.00  0.00    +0.000 C 
ATOM     10  C2  UNL     1      -3.893  -0.300   1.117  0.00  0.00    +0.000 C 
ATOM     11  C3  UNL     1      -3.279   0.177   0.029  0.00  0.00    +0.000 C 
ATOM     12  C4  UNL     1      -4.253   0.961  -0.735  0.00  0.00    +0.000 C 
ATOM     13  O1  UNL     1      -4.018   1.604  -1.791  0.00  0.00    +0.000 OA
ATOM     14  N1  UNL     1      -5.514   0.959  -0.082  0.00  0.00    +0.000 N 
ATOM     15  C5  UNL     1      -5.276   0.178   1.081  0.00  0.00    +0.000 C 
ATOM     16  O2  UNL     1      -6.152  -0.054   1.955  0.00  0.00    +0.000 OA
ATOM     17  H4  UNL     1      -6.389   1.453  -0.362  0.00  0.00    +0.000 HD
ENDBRANCH   1  11
BRANCH   3  18
ATOM     18  C12 UNL     1       1.761  -0.009   0.194  0.00  0.00    +0.000 A 
ATOM     19  C13 UNL     1       2.763  -0.782  -0.410  0.00  0.00    +0.000 A 
ATOM     20  C14 UNL     1       4.085  -0.705   0.039  0.00  0.00    +0.000 A 
ATOM     21  C15 UNL     1       4.430   0.155   1.095  0.00  0.00    +0.000 A 
ATOM     22  C16 UNL     1       3.417   0.895   1.728  0.00  0.00    +0.000 A 
ATOM     23  C17 UNL     1       2.095   0.817   1.279  0.00  0.00    +0.000 A 
BRANCH  21  24
ATOM     24  C18 UNL     1       5.846   0.201   1.611  0.00  0.00    +0.000 C 
ATOM     25  F1  UNL     1       6.746  -0.039   0.588  0.00  0.00    +0.000 F 
ATOM     26  F2  UNL     1       6.128   1.444   2.152  0.00  0.00    +0.000 F 
ATOM     27  F3  UNL     1       6.006  -0.763   2.588  0.00  0.00    +0.000 F 
ENDBRANCH  21  24
ENDBRANCH   3  18
BRANCH   5  28
ATOM     28  C11 UNL     1       1.607  -0.096  -3.410  0.00  0.00    +0.000 C 
ATOM     29  N5  UNL     1       2.674   0.027  -3.841  0.00  0.00    +0.000 NA
ENDBRANCH   5  28
TORSDOF 4
