REMARK  Name = aging_docking_results\XZRIVAKQBKTL.pdb
REMARK  5 active torsions:
REMARK  status: ('A' for Active; 'I' for Inactive)
REMARK    1  A    between atoms: C1_1  and  O1_2
REMARK    2  A    between atoms: O1_2  and  C2_3
REMARK    3  A    between atoms: C3_4  and  O4_20
REMARK    4  A    between atoms: C10_12  and  C11_14
REMARK    5  A    between atoms: O4_20  and  C17_21
REMARK                            x       y       z     vdW  Elec       q    Type
REMARK                         _______ _______ _______ _____ _____    ______ ____
ROOT
ATOM      1  C2  UNL     1      -3.128   0.367   0.933  0.00  0.00    +0.000 A 
ATOM      2  C3  UNL     1      -2.803  -0.841   0.294  0.00  0.00    +0.000 A 
ATOM      3  C4  UNL     1      -1.477  -1.081  -0.112  0.00  0.00    +0.000 A 
ATOM      4  C5  UNL     1      -0.482  -0.128   0.116  0.00  0.00    +0.000 A 
ATOM      5  C6  UNL     1      -0.801   1.086   0.756  0.00  0.00    +0.000 A 
ATOM      6  C7  UNL     1      -2.125   1.329   1.162  0.00  0.00    +0.000 A 
ATOM      7  C8  UNL     1       0.229   2.019   0.959  0.00  0.00    +0.000 A 
ATOM      8  O2  UNL     1       0.002   3.127   1.518  0.00  0.00    +0.000 OA
ATOM      9  C9  UNL     1       1.522   1.716   0.532  0.00  0.00    +0.000 A 
ATOM     10  C10 UNL     1       1.771   0.480  -0.091  0.00  0.00    +0.000 A 
ATOM     11  O3  UNL     1       0.765  -0.375  -0.275  0.00  0.00    +0.000 OA
ENDROOT
BRANCH  10  12
ATOM     12  C11 UNL     1       3.125   0.101  -0.568  0.00  0.00    +0.000 A 
ATOM     13  C12 UNL     1       4.293   0.614   0.033  0.00  0.00    +0.000 A 
ATOM     14  C13 UNL     1       5.555   0.230  -0.433  0.00  0.00    +0.000 A 
ATOM     15  C14 UNL     1       5.668  -0.671  -1.493  0.00  0.00    +0.000 A 
ATOM     16  C15 UNL     1       4.519  -1.195  -2.088  0.00  0.00    +0.000 A 
ATOM     17  C16 UNL     1       3.254  -0.817  -1.627  0.00  0.00    +0.000 A 
ENDBRANCH  10  12
BRANCH   1  19
ATOM     18  C1  UNL     1      -4.939   1.744   1.980  0.00  0.00    +0.000 C 
ATOM     19  O1  UNL     1      -4.461   0.573   1.325  0.00  0.00    +0.000 OA
ENDBRANCH   1  19
BRANCH   2  20
ATOM     20  O4  UNL     1      -3.828  -1.777   0.081  0.00  0.00    +0.000 OA
ATOM     21  C17 UNL     1      -3.648  -3.040  -0.551  0.00  0.00    +0.000 C 
ENDBRANCH   2  20
TORSDOF 3
